Version 4
SHEET 1 1560 680
WIRE 272 -224 -336 -224
WIRE 496 -224 272 -224
WIRE 688 -224 496 -224
WIRE 112 -160 -224 -160
WIRE 272 -160 272 -224
WIRE 496 -160 496 -224
WIRE 112 -112 112 -160
WIRE 688 -48 688 -224
WIRE 112 32 112 -32
WIRE 160 32 112 32
WIRE 176 32 160 32
WIRE 464 32 240 32
WIRE 592 32 464 32
WIRE 640 32 592 32
WIRE -336 96 -336 -224
WIRE -224 96 -224 -160
WIRE 112 96 112 32
WIRE 592 112 592 32
WIRE 608 112 592 112
WIRE 688 112 688 48
WIRE 688 112 672 112
WIRE 832 112 688 112
WIRE 912 112 896 112
WIRE -112 144 -128 144
WIRE -32 144 -48 144
WIRE 64 144 -32 144
WIRE -32 160 -32 144
WIRE 912 160 912 112
WIRE 272 192 272 -80
WIRE 352 192 272 192
WIRE 464 192 464 32
WIRE 464 192 432 192
WIRE -128 208 -128 144
WIRE -336 224 -336 176
WIRE -224 224 -224 176
WIRE 272 224 272 192
WIRE 688 224 688 112
WIRE 128 272 128 208
WIRE 496 272 496 -80
WIRE 624 272 496 272
WIRE 912 272 912 240
WIRE -128 336 -128 288
WIRE -32 336 -32 240
WIRE 80 368 80 192
WIRE 80 368 16 368
WIRE 96 368 96 208
WIRE 128 368 128 352
WIRE 128 368 96 368
WIRE 272 368 272 304
WIRE 688 368 688 320
WIRE 80 400 80 368
WIRE 688 400 688 368
WIRE 16 416 16 368
WIRE 496 416 496 272
WIRE 16 528 16 480
WIRE 80 528 80 480
WIRE 496 544 496 480
WIRE 688 544 688 480
FLAG 16 528 0
FLAG 80 528 0
FLAG -128 336 0
FLAG -224 224 0
FLAG -336 224 0
FLAG -32 336 0
FLAG 272 368 0
FLAG 496 544 0
FLAG 688 544 0
FLAG 912 272 0
FLAG 912 112 out
FLAG 688 112 VRTGND
FLAG 592 32 Vg
FLAG 496 272 Vb
FLAG 688 368 V_Re
FLAG -32 144 Vin
FLAG 160 32 Vpre
SYMBOL Misc\\triodeh 112 144 R0
SYMATTR InstName U1
SYMATTR Value UBC41
SYMBOL voltage -336 80 R0
SYMATTR InstName V1
SYMATTR Value 12V
SYMBOL voltage -224 80 R0
SYMATTR InstName V2
SYMATTR Value 150V
SYMBOL voltage -128 192 R0
WINDOW 3 -221 99 Left 2
WINDOW 123 24 292 Left 2
WINDOW 39 -139 126 Left 2
SYMATTR Value SINE(0 170m 1k)
SYMATTR SpiceLine Rser=600
SYMATTR InstName V3
SYMBOL voltage 128 256 R0
WINDOW 123 0 0 Left 2
WINDOW 39 0 0 Left 2
SYMATTR InstName V4
SYMATTR Value 15V
SYMBOL cap -48 128 R90
WINDOW 0 0 32 VBottom 2
WINDOW 3 32 32 VTop 2
SYMATTR InstName C1
SYMATTR Value 10n
SYMBOL res -48 144 R0
SYMATTR InstName R1
SYMATTR Value 1MEG
SYMBOL res 96 -128 R0
SYMATTR InstName R2
SYMATTR Value 39k
SYMBOL res 64 384 R0
SYMATTR InstName R3
SYMATTR Value 1k
SYMBOL polcap 0 416 R0
SYMATTR InstName C2
SYMATTR Value 47µ
SYMBOL cap 240 16 R90
WINDOW 0 0 32 VBottom 2
WINDOW 3 32 32 VTop 2
SYMATTR InstName C3
SYMATTR Value 470n
SYMBOL res 256 -176 R0
SYMATTR InstName R4
SYMATTR Value 5k
SYMBOL res 256 208 R0
SYMATTR InstName R5
SYMATTR Value 100k
SYMBOL res 448 176 R90
WINDOW 0 0 56 VBottom 2
WINDOW 3 32 56 VTop 2
SYMATTR InstName R6
SYMATTR Value 1MEG
SYMBOL nmos 640 -48 R0
SYMATTR InstName M1
SYMATTR Value IRF530
SYMBOL zener 672 96 R90
WINDOW 0 -4 32 VBottom 2
WINDOW 3 36 32 VTop 2
SYMATTR InstName D1
SYMATTR Value 1N4735A
SYMBOL zener 512 480 R180
WINDOW 0 24 64 Left 2
WINDOW 3 24 0 Left 2
SYMATTR InstName D2
SYMATTR Value D1N5225
SYMBOL res 480 -176 R0
SYMATTR InstName R7
SYMATTR Value 330R
SYMBOL npn 624 224 R0
SYMATTR InstName Q1
SYMATTR Value Qtip41c
SYMBOL res 672 384 R0
SYMATTR InstName R8
SYMATTR Value 2,2R
SYMBOL res 896 144 R0
SYMATTR InstName R9
SYMATTR Value 8R
SYMBOL polcap 832 128 R270
WINDOW 0 32 32 VTop 2
WINDOW 3 0 32 VBottom 2
SYMATTR InstName C4
SYMATTR Value 4700µ
TEXT -600 -120 Left 2 !.inc dmtriodep.inc
TEXT -600 -144 Left 2 !.inc TIP41.inc
TEXT -600 -168 Left 2 !.inc MoreDiodes.inc
TEXT -600 -192 Left 2 !.inc MoreZeners.inc
TEXT -600 80 Left 2 !.FOURIER 1k v(out)
TEXT -600 112 Left 2 !;FOURIER 20k v(out)
TEXT -600 24 Left 2 !.tran 10m
TEXT -600 192 Left 2 !;FOURIER 20k v(Vpre)
TEXT -600 216 Left 2 !.FOURIER 20k v(Vpre)
